Title: New York Times, Saturday, May 4, 1991
Author: Calista Luminati
Editor: Eugene T. Maleska
Date: 1991-05-04


BIGWIG#ADDS#SAT
ERRATA#NEAT#ERA
EVILER#VENERATE
DINTS#JIMCROW##
INGE#PULSE#BARA
#GORGON##SPITIN
###PESTO##ANEMO
CHRISTOPHERWREN
LEEDS##TORII###
AMIGOS##MISLAY#
PINE#EATEN#LOOM
##JOHNJAY#DIRGE
TRENDIER#MEATUS
INC#OLST#AYMARA
PST#CETE#ASSETS


A1. V.I.P. ~ BIGWIG
A7. Tots ~ ADDS
A11. Met in committee ~ SAT
A14. Corrigenda ~ ERRATA
A15. Bandbox ~ NEAT
A16. Siècle ~ ERA
A17. More pernicious ~ EVILER
A18. Worship ~ VENERATE
A20. Drives in forcibly ~ DINTS
A21. Early minstrel-show song ~ JIMCROW
A22. "Bus Stop" playwright ~ INGE
A23. Throb ~ PULSE
A24. Negri rival ~ BARA
A27. Ugly, terrifying woman ~ GORGON
A29. ___ the ocean (kind of poker) ~ SPITIN
A31. Italian sauce ~ PESTO
A33. Wind: Comb. form ~ ANEMO
A34. St. Paul's planner ~ CHRISTOPHERWREN
A39. Yorkshire city ~ LEEDS
A40. Shinto shrine gateway ~ TORII
A41. "Three ___," 1986 film ~ AMIGOS
A43. Place in the wrong place ~ MISLAY
A46. Long ~ PINE
A47. Corroded ~ EATEN
A50. Where to see a heddle ~ LOOM
A52. First Chief Justice ~ JOHNJAY
A54. Monody ~ DIRGE
A55. More mod ~ TRENDIER
A57. Foramen; anatomical passage ~ MEATUS
A58. "Airways ___": Dos Passos ~ INC
A59. Netherlands town ~ OLST
A60. Peruvian Indian ~ AYMARA
A61. Calif. winter time ~ PST
A62. Group of badgers ~ CETE
A63. All one's resources ~ ASSETS

D1. Cheap cigarette, in India ~ BEEDI
D2. Essayist Washington ~ IRVING
D3. Yankee, below the border ~ GRINGO
D4. A star in "The Miniver Story" ~ WALTERPIDGEON
D5. Residents: Suffix ~ ITES
D6. Needlefish ~ GAR
D7. Percussion instrument ~ ANVIL
D8. Musicologist Taylor ~ DEEMS
D9. Costner's "___ With Wolves" ~ DANCES
D10. Ident. on silver ~ STER
D11. Sight in a salt marsh ~ SEAWATER
D12. "'Tis all thou ___ . . . ": Pope ~ ART
D13. ___ Han (Korea) ~ TAE
D19. "Dead Poets Society" star ~ ROBINWILLIAMS
D21. Cabal ~ JUNTO
D23. Spile ~ POST
D25. Jack Frost's handiwork ~ RIME
D26. "___, good nurse!": Juliet ~ ANON
D28. Painter's paste ~ GESSO
D30. Plaster of ___ ~ PARIS
D32. Elect ~ OPT
D34. Indicate approval ~ CLAP
D35. Internal-combustion engine, for short ~ HEMI
D36. Give another shot ~ REINJECT
D37. Cozy ~ HOMEY
D38. Hibernia ~ ERIN
D42. Dotard ~ SENILE
D44. Blood lines of a sort ~ AORTAE
D45. Cultured product ~ YOGURT
D48. "Life is ___ . . . ": J. Gay ~ AJEST
D49. French pie ~ TARTE
D51. Sights near Santa Fe ~ MESAS
D53. Legis. bill ~ HDOC
D54. Former Algerian rulers ~ DEYS
D55. O'Neill from Mass. ~ TIP
D56. Hosp. group ~ RNS
D57. Lamb's mewl ~ MAA

