Title: New York Times, Tuesday, September 26, 1989
Author: Arthur W. Palmer
Editor: Eugene T. Maleska
Date: 1989-09-26


RACE#LETTS#ICES
EDUC#ATRIA#NOTE
EATHIGHONTHEHOG
FREELOAD##ORONO
###LION#MELT###
SAMOAN#MARM#CHO
IVAN##BOGIE#LEA
EATSOMEONESSALT
VIE#PANDA##ERLE
ELY#TREY#AWAKEN
###DIET#BREW###
PTERO##SOCIABLE
EATONESHEARTOUT
LOAN#STERN#EDNA
ESTE#TEASE#REAL


A1. Preakness event ~ RACE
A5. Dwellers near the Baltic Sea ~ LETTS
A10. Clinches, as a victory ~ ICES
A14. Supt. of school's responsibility ~ EDUC
A15. Roman halls ~ ATRIA
A16. Observe ~ NOTE
A17. Live well ~ EATHIGHONTHEHOG
A20. Sponge ~ FREELOAD
A21. Me. college town ~ ORONO
A22. Celebrity ~ LION
A23. Soften ~ MELT
A25. Certain Polynesian ~ SAMOAN
A28. School ___ (rural teacher) ~ MARM
A29. Japanese land measure ~ CHO
A32. "Terrible" czar ~ IVAN
A33. Bad score for Nicklaus ~ BOGIE
A34. Pasture ~ LEA
A35. Partake of hospitality ~ EATSOMEONESSALT
A39. Contend ~ VIE
A40. Zoo attraction ~ PANDA
A41. A Gardner ~ ERLE
A42. Culbertson of bridge fame ~ ELY
A43. Playing card ~ TREY
A44. Leave the land of Nod ~ AWAKEN
A46. Limit intake ~ DIET
A47. Gather, as a storm ~ BREW
A48. Dactyl's precursor ~ PTERO
A51. Friendly ~ SOCIABLE
A55. Grieve bitterly ~ EATONESHEARTOUT
A58. Bank activity ~ LOAN
A59. Inflexible ~ STERN
A60. Actress Best ~ EDNA
A61. Villa d'___ ~ ESTE
A62. Badger ~ TEASE
A63. Actual ~ REAL

D1. Trim a sail ~ REEF
D2. Between Shebat and Nisan ~ ADAR
D3. Attractive ~ CUTE
D4. Flight formations ~ ECHELONS
D5. Shallow pond ~ LAGOON
D6. A Vermont Allen ~ ETHAN
D7. " . . . still by faith he ___": V. Lindsay ~ TROD
D8. "___ Men," 1987 film ~ TIN
D9. What Miss Muffet did ~ SAT
D10. Sluggish ~ INERT
D11. Type of salmon ~ COHO
D12. Institution on the Thames ~ ETON
D13. Lily of Utah ~ SEGO
D18. Mother of Romulus ~ ILIA
D19. Watson's companion ~ HOLMES
D23. ___ cum laude ~ MAGNA
D24. Pa. city ~ ERIE
D25. Sifter ~ SIEVE
D26. Benefit ~ AVAIL
D27. London dockyard worker ~ MATEY
D28. Mazda Senior Tournament winner: 1989 ~ MOODY
D29. Lewis's exploring partner ~ CLARK
D30. She fled on a golden ram ~ HELLE
D31. Of a certain grain ~ OATEN
D33. Author of "John Brown's Body" ~ BENET
D36. Choice ~ OPTION
D37. Foal's mother ~ MARE
D38. The Atlantic's contents ~ SEAWATER
D44. Secret ~ ARCANE
D45. Small dam ~ WEIR
D46. Stingless, feckless bee ~ DRONE
D47. Some South Africans ~ BOERS
D48. Soccer great ~ PELE
D49. Town or county in N.M. ~ TAOS
D50. L'___ c'est moi" ~ ETAT
D51. Seaver's first baseball home ~ SHEA
D52. Presage ~ BODE
D53. Type of moth ~ LUNA
D54. Catchall abbr. ~ ETAL
D56. Part of i.e. ~ EST
D57. Anagram of 56 Down ~ STE

