Title: New York Times, Wednesday, August 17, 1988
Author: Gloria Evans
Editor: Eugene T. Maleska
Date: 1988-08-17


OPS##PAID##SCAD
ROLE#OPTIC#TARE
CLINGPEACH#ENNA
HYMNAL#SEAWATER
###OBAD#DRAMA##
BARBERED#TAYLOR
IDOLS#REBEC#OWE
NOME#LEGER#LUNA
ERE#DAKAR#TAPER
TEAPOT#STRIVERS
##PELEE#HEMI###
TIPSTERS#LONELY
ORLE#NECTARINES
DIET#SCARY#AIDE
OSSA##TRIS##DAR


A1. Goddess of plenty ~ OPS
A4. Remunerated ~ PAID
A8. Carangid fish ~ SCAD
A12. Customary function ~ ROLE
A14. Of sight ~ OPTIC
A16. Biblical weed ~ TARE
A17. CHIC ENG. PAL gets fruit ~ CLINGPEACH
A19. Sicilian city ~ ENNA
A20. Volume in a pew ~ HYMNAL
A21. Brine ~ SEAWATER
A23. O.T. book ~ OBAD
A25. Aeschylus creation ~ DRAMA
A26. Gave a shave and a haircut ~ BARBERED
A30. Twelfth U.S. President ~ TAYLOR
A33. Objects of adulation ~ IDOLS
A34. Renaissance fiddle ~ REBEC
A36. Be in arrears ~ OWE
A37. The ___ King, foe of Oz ~ NOME
A38. French Cubist painter ~ LEGER
A39. Pale green moth ~ LUNA
A40. Middle of a palindrome ~ ERE
A41. Senegal's capital ~ DAKAR
A42. Become attenuated, with "off" ~ TAPER
A43. Souchong receptacle ~ TEAPOT
A45. They try hard ~ STRIVERS
A47. Martinique spouter ~ PELEE
A49. Sphere or stich preceder ~ HEMI
A50. Some touts ~ TIPSTERS
A53. "The Heart Is a ___ Hunter": McCullers ~ LONELY
A57. Heraldic band ~ ORLE
A58. Fruit coming in NINE CRATES ~ NECTARINES
A60. Formal assembly ~ DIET
A61. Hair-raising ~ SCARY
A62. Man Friday ~ AIDE
A63. Greek peak ~ OSSA
A64. Speaker of baseball ~ TRIS
A65. Nabokov novel ~ DAR

D1. Mehta's gp., e.g. ~ ORCH
D2. Kind of graph or ester ~ POLY
D3. Pickens of films ~ SLIM
D4. Wood used for pulp ~ POPLAR
D5. Emulate ~ APE
D6. "Play ___ It Lays": Didion ~ ITAS
D7. Cut into cubes ~ DICED
D8. Vaporous ~ STEAMY
D9. LEAP A COUNT to get fruit ~ CANTALOUPE
D10. "Artaxerxes" composer ~ ARNE
D11. Expensive ~ DEAR
D13. Elevate to dignity ~ ENNOBLE
D15. Constitution ~ CHARTER
D18. Tunisian seaport ~ GABES
D22. British servicewoman: W.W. I ~ WAAC
D24. John or Bo ~ DEREK
D26. Intelligence man ~ BINET
D27. "I may command where I ___": Shak. ~ ADORE
D28. AMPLE PROSE about fruit ~ ROMEAPPLES
D29. Painter of ballerinas ~ DEGAS
D31. Deed holder ~ OWNER
D32. Brings up ~ REARS
D35. Ship's parking space ~ BERTH
D38. Triangular sails ~ LATEENS
D39. Wife of Aeneas ~ LAVINIA
D41. Blockhead ~ DOLT
D42. Indonesian island ~ TIMOR
D44. Cartagena coin ~ PESETA
D46. Passes on ~ RELAYS
D48. Vertical ~ ERECT
D50. Hoopla ~ TODO
D51. Novelist Murdoch ~ IRIS
D52. Battle memento ~ SCAR
D54. Home of Vance AFB ~ ENID
D55. Clytemnestra's mother ~ LEDA
D56. Belgian river ~ YSER
D59. Cot or corn starter ~ TRI

