Title: New York Times, Tuesday, January 9, 1968
Author: Unknown
Editor: Margaret Farrar
Date: 1968-01-09


GASP#CHART#BATH
IDEA#RAWER#ACRE
BIRDSOFAFEATHER
ENTREATY#ABATED
###OTTS#ASIA###
ADONIS#LOUDNESS
LUMEN#LORRE#VII
ORES#CARTE#SINK
NEG#SYRIA#PEACH
GRACKLES#THANES
###REIS#CROW###
OSSEIN#GRENADES
SECONDTHEMOTION
SEAL#ERATO#ENNA
ANTE#RATER#RESP


A1. Catch one's breath. ~ GASP
A5. Diagram. ~ CHART
A10. Sauna. ~ BATH
A14. Impression. ~ IDEA
A15. Less experienced. ~ RAWER
A16. 160 square rods. ~ ACRE
A17. Like creatures. ~ BIRDSOFAFEATHER
A20. Plea. ~ ENTREATY
A21. Eased up. ~ ABATED
A22. Mel and kin. ~ OTTS
A23. Home of 30 Down. ~ ASIA
A24. Aphrodite's love. ~ ADONIS
A27. Noise. ~ LOUDNESS
A31. Unit of light. ~ LUMEN
A32. Name in screen lore. ~ LORRE
A33. Clock numeral. ~ VII
A34. Antimony and others. ~ ORES
A35. Name of G and S fame. ~ CARTE
A36. Kitchen feature. ~ SINK
A37. Photographer's abbreviation. ~ NEG
A38. Israel's neighbor. ~ SYRIA
A39. Pippin. ~ PEACH
A40. See 17 Across. ~ GRACKLES
A42. Some Scots. ~ THANES
A43. Former money of Portugal. ~ REIS
A44. One of 17 Across. ~ CROW
A45. Chief substance of bone tissue. ~ OSSEIN
A48. Missiles. ~ GRENADES
A52. Voice an agreement. ~ SECONDTHEMOTION
A54. Zoo favorite. ~ SEAL
A55. Muse. ~ ERATO
A56. Present name of Castrogiovanni. ~ ENNA
A57. One kind of bet. ~ ANTE
A58. Word with first, second, etc. ~ RATER
A59. Breathing: Abbr. ~ RESP

D1. Taunt. ~ GIBE
D2. Tennis score. ~ ADIN
D3. Spanish artist. ~ SERT
D4. Innkeepers of Verona. ~ PADRONES
D5. Natives of Zagreb. ~ CROATS
D6. Tool parts. ~ HAFTS
D7. Have ___ with. ~ AWAY
D8. Kind of book: Abbr. ~ REF
D9. Fictional island. ~ TREASURE
D10. Peninsula W of Manila Bay. ~ BATAAN
D11. Eight: Ger. ~ ACHT
D12. Pear or plum. ~ TREE
D13. Drove. ~ HERD
D18. Commence. ~ SETIN
D19. "___ with me . . . " ~ ABIDE
D23. Important body part. ~ AORTA
D24. On the way. ~ ALONG
D25. Great name in art. ~ DURER
D26. Greek letter. ~ OMEGA
D27. Monkey's cousin. ~ LORIS
D28. European spa. ~ EVIAN
D29. In view of the fact that. ~ SINCE
D30. Some Indians. ~ SIKHS
D32. Penates' companion. ~ LARES
D35. Engine part. ~ CYLINDER
D36. Great portion of the earth. ~ SEAWATER
D38. Flock of wild fowl. ~ SKEIN
D39. Sound prefix. ~ PHONO
D41. Native of New Orleans. ~ CREOLE
D42. Feeling of uncertainty. ~ TREMOR
D44. Where Canea is. ~ CRETE
D45. Movable mountain. ~ OSSA
D46. Witnessed. ~ SEEN
D47. Get going! ~ SCAT
D48. Landing place, on the Ganges. ~ GHAT
D49. Feast. ~ DINE
D50. Long, long time. ~ EONS
D51. Easy course. ~ SNAP
D53. Musical syllable. ~ TRA

